<?xml version="1.0" encoding="UTF-8"?>

<!-- generated on Tue Dec 23 07:15:04 2014 by SUMO polyconvert Version 0.22.0
<?xml version="1.0" encoding="UTF-8"?>

<configuration xmlns:xsi="http://www.w3.org/2001/XMLSchema-instance" xsi:noNamespaceSchemaLocation="http://sumo.dlr.de/xsd/polyconvertConfiguration.xsd">

    <input>
        <osm-files value="map.osm"/>
    </input>

    <projection>
        <proj.scale value="0"/>
        <proj.utm value="true"/>
    </projection>

</configuration>
-->

<additional xmlns:xsi="http://www.w3.org/2001/XMLSchema-instance" xsi:noNamespaceSchemaLocation="http://sumo.dlr.de/xsd/additional_file.xsd">
    <poly id="201463736" type="unknown" color="51,128,255" fill="0" layer="-1.00" shape="748729.82,-1086467.69 748788.10,-1086457.30 748847.99,-1086450.97 748887.46,-1086441.21 748911.38,-1086435.31 748987.00,-1086396.05 749050.31,-1086340.47 749056.24,-1086334.45 749071.10,-1086319.40 749090.91,-1086299.35 749112.17,-1086277.81 749142.86,-1086246.73 749431.10,-1085954.81 751020.44,-1084345.20 751087.96,-1084278.93 751168.43,-1084211.42 751335.34,-1084075.61 752678.30,-1082964.56 754718.10,-1081276.06 754818.93,-1081193.04 754863.65,-1081173.49 754906.76,-1081163.10 754948.28,-1081162.88 754962.69,-1081166.10 754970.46,-1081167.83 754983.58,-1081170.76 755021.93,-1081187.73 755029.26,-1081190.97 755156.16,-1081286.26 755196.49,-1081315.89 755223.52,-1081335.75 755225.01,-1081336.85 755228.79,-1081339.63 755255.56,-1081359.29 755848.87,-1081795.23 756405.79,-1082204.45 756544.87,-1082306.65 756794.31,-1082489.95 756885.66,-1082557.06 756911.65,-1082576.17 756954.25,-1082600.32 756993.10,-1082613.31 757020.93,-1082618.89 757029.94,-1082620.70 757056.94,-1082618.43 757080.19,-1082616.47 757110.66,-1082610.35 757131.48,-1082603.00"/>
    <poly id="211151562" type="unknown" color="51,128,255" fill="0" layer="-1.00" shape="759383.75,-1081395.72 759254.53,-1081371.24 759219.35,-1081364.59 759190.79,-1081359.17 759150.07,-1081351.46 759117.05,-1081342.13 759093.67,-1081333.52 759075.25,-1081323.61 759066.10,-1081318.70 759053.20,-1081310.42 759024.35,-1081292.93 759003.41,-1081274.38 758991.70,-1081264.94 758980.64,-1081246.14 758974.93,-1081220.36 758973.74,-1081206.00 758951.40,-1081193.03 758893.45,-1081160.72 758837.16,-1081128.74 758790.71,-1081101.82 758702.71,-1081054.40 758637.74,-1081017.36 758607.21,-1080986.41 758582.82,-1080961.39 758527.85,-1080907.19 758481.41,-1080882.42 758382.26,-1080829.53 758370.51,-1080823.26 758324.58,-1080796.52 758261.43,-1080759.73 758194.57,-1080721.41 758152.52,-1080688.12 758089.03,-1080611.85"/>
    <poly id="211151563" type="unknown" color="51,128,255" fill="0" layer="-1.00" shape="756239.48,-1078746.91 756073.34,-1078881.49"/>
    <poly id="211151564" type="unknown" color="51,128,255" fill="0" layer="-1.00" shape="756073.34,-1078881.49 756138.49,-1078972.18 756179.06,-1079028.45 756235.53,-1079106.79 756261.73,-1079143.19"/>
    <poly id="211151565" type="unknown" color="51,128,255" fill="0" layer="-1.00" shape="756018.72,-1078943.33 756030.15,-1078965.06 756073.27,-1079024.28 756207.05,-1079216.53 756261.73,-1079143.19"/>
    <poly id="211151566" type="unknown" color="51,128,255" fill="0" layer="-1.00" shape="755921.96,-1078040.21 755917.12,-1078034.16 755883.92,-1077992.06 755849.51,-1077948.50 755804.49,-1077891.50 755773.11,-1077851.75 755756.36,-1077830.54 755706.49,-1077767.39 755619.25,-1077658.81 755540.07,-1077560.26 755494.12,-1077503.06 755447.87,-1077445.51 755329.22,-1077297.83 755253.26,-1077203.28 755170.52,-1077100.30 755167.09,-1077096.11 755146.14,-1077070.43 755098.49,-1077012.10 755067.68,-1076974.38 755035.21,-1076934.61 754960.66,-1076843.32 754942.78,-1076821.42 754920.85,-1076792.21 754910.10,-1076777.91 754891.62,-1076754.26 754875.66,-1076733.85 754837.64,-1076695.50 754769.32,-1076623.78 754727.61,-1076580.70"/>
    <poly id="211151567" type="unknown" color="51,128,255" fill="0" layer="-1.00" shape="756570.14,-1078222.66 756482.94,-1078235.19 756414.58,-1078254.18"/>
    <poly id="211151569" type="unknown" color="51,128,255" fill="0" layer="-1.00" shape="756342.83,-1077516.96 756274.55,-1077536.59 756204.46,-1077556.72 756144.78,-1077573.87"/>
    <poly id="211151570" type="unknown" color="51,128,255" fill="0" layer="-1.00" shape="759023.84,-1081023.25 759000.90,-1081077.01 758951.40,-1081193.03"/>
    <poly id="211151571" type="unknown" color="51,128,255" fill="0" layer="-1.00" shape="755348.72,-1079785.61 755389.74,-1079770.19 755429.60,-1079755.22 755444.32,-1079749.00 755610.90,-1079678.60 755649.24,-1079657.34 755654.65,-1079654.34 755694.92,-1079620.68 755717.27,-1079601.56 755737.16,-1079592.47 755892.04,-1079560.41 755952.05,-1079548.42 755967.48,-1079545.34 756032.77,-1079487.42"/>
    <poly id="211151572" type="unknown" color="51,128,255" fill="0" layer="-1.00" shape="756951.24,-1079780.03 756959.62,-1079775.37 756969.28,-1079769.14 757019.47,-1079736.81"/>
    <poly id="211151574" type="unknown" color="51,128,255" fill="0" layer="-1.00" shape="758514.14,-1081161.25 758369.18,-1081077.92 758261.24,-1081015.86 758150.89,-1080952.41 758034.10,-1080885.32"/>
    <poly id="211151575" type="unknown" color="51,128,255" fill="0" layer="-1.00" shape="755336.88,-1078084.30 755342.31,-1078167.01 755342.17,-1078240.80 755341.95,-1078349.50 755343.81,-1078447.06 755344.15,-1078480.57 755346.27,-1078692.95 755346.36,-1078702.34 755348.28,-1078894.75 755348.97,-1078963.73 755350.19,-1079086.22 755350.80,-1079146.49 755352.13,-1079280.45 755353.22,-1079389.64 755353.08,-1079401.72 755352.69,-1079435.64 755352.60,-1079443.57 755352.32,-1079469.27 755351.98,-1079499.76 755351.76,-1079518.12 755351.63,-1079529.28 755350.76,-1079606.77 755350.13,-1079661.46 755348.72,-1079785.61"/>
    <poly id="211151576" type="unknown" color="51,128,255" fill="0" layer="-1.00" shape="757473.72,-1079988.15 757374.98,-1079866.14 757181.88,-1079627.51 756992.82,-1079393.89 756928.69,-1079314.64 756864.66,-1079235.52 756796.38,-1079151.15 756744.01,-1079086.43 756691.32,-1079021.33 756633.95,-1078950.43 756513.06,-1078801.13 756422.36,-1078768.04"/>
    <poly id="211151577" type="unknown" color="51,128,255" fill="0" layer="-1.00" shape="757019.47,-1079736.81 756969.56,-1079626.65"/>
    <poly id="211151579" type="unknown" color="51,128,255" fill="0" layer="-1.00" shape="754616.57,-1078903.91 754618.08,-1078896.41 754618.79,-1078892.90 754681.61,-1078580.14"/>
    <poly id="211151580" type="unknown" color="51,128,255" fill="0" layer="-1.00" shape="755429.60,-1079755.22 755428.30,-1079685.13 755427.33,-1079632.46 755426.31,-1079577.77 755425.44,-1079530.67"/>
    <poly id="211151581" type="unknown" color="51,128,255" fill="0" layer="-1.00" shape="759103.69,-1078944.76 759077.74,-1078959.50 759061.61,-1078965.96 759044.06,-1078970.81 759032.03,-1078972.12 759006.36,-1078974.41 758971.18,-1078977.15 758965.12,-1078977.63 758799.01,-1078985.83 758709.22,-1078989.41 758614.55,-1078993.19 758522.63,-1078996.85 758409.16,-1079001.38 758215.76,-1079009.10 758052.36,-1079015.61 757924.91,-1079020.69 757848.13,-1079024.08 757747.18,-1079028.52 757635.26,-1079033.45 757478.44,-1079040.36 757367.47,-1079045.04 757309.36,-1079047.48 757254.59,-1079049.96 757222.16,-1079055.06 757191.73,-1079063.53 757108.61,-1079109.75"/>
    <poly id="211151583" type="unknown" color="51,128,255" fill="0" layer="-1.00" shape="756327.62,-1078510.28 756336.70,-1078554.02"/>
    <poly id="211151584" type="unknown" color="51,128,255" fill="0" layer="-1.00" shape="754151.18,-1077539.11 754262.01,-1077297.66 754314.25,-1077195.44 754337.92,-1077149.12 754358.07,-1077109.70 754363.93,-1077098.21 754381.47,-1077063.91 754388.42,-1077050.30 754412.81,-1077002.56 754427.05,-1076974.68 754449.71,-1076932.71 754526.96,-1076831.45 754621.36,-1076723.86 754685.46,-1076645.96 754727.61,-1076580.70"/>
    <poly id="211479764" type="unknown" color="51,128,255" fill="0" layer="-1.00" shape="756882.84,-1078872.81 756936.81,-1078831.33"/>
    <poly id="211479765" type="unknown" color="51,128,255" fill="1" layer="-1.00" shape="757430.32,-1078773.17 757424.94,-1078776.62 757421.06,-1078781.70 757419.55,-1078785.72 757419.14,-1078792.07 757422.41,-1078800.65 757426.96,-1078805.13 757432.78,-1078807.79 757440.61,-1078808.13 757446.64,-1078805.99 757450.70,-1078802.85 757454.30,-1078797.58 757455.88,-1078791.31 757455.45,-1078787.24 757455.20,-1078784.98 757452.38,-1078779.26 757449.82,-1078776.45 757444.38,-1078773.08 757438.13,-1078771.76 757430.32,-1078773.17"/>
    <poly id="211479766" type="unknown" color="51,128,255" fill="0" layer="-1.00" shape="757515.05,-1079499.12 757509.68,-1079431.76 757500.13,-1079311.74 757496.35,-1079264.29 757489.71,-1079180.73 757484.01,-1079109.87 757478.44,-1079040.36 757468.63,-1078929.88 757463.41,-1078873.40 757458.83,-1078823.84 757455.88,-1078791.31"/>
    <poly id="211479767" type="unknown" color="51,128,255" fill="0" layer="-1.00" shape="756470.67,-1077546.87 756525.66,-1077598.15 756546.69,-1077622.87 756552.99,-1077648.07 756553.42,-1077691.80 756576.24,-1077781.04 756618.58,-1077956.25 756654.72,-1078010.32 756661.00,-1078030.41 756691.43,-1078212.63 756717.31,-1078329.87 756726.59,-1078408.35 756726.30,-1078420.76 756725.73,-1078461.43 756727.98,-1078485.30 756740.64,-1078528.08 756792.25,-1078644.28 756873.44,-1078751.83 756936.81,-1078831.33 757009.96,-1078923.08 757062.55,-1078994.12"/>
    <poly id="211479768" type="unknown" color="51,128,255" fill="1" layer="-1.00" shape="756783.30,-1078319.53 756823.03,-1078389.71 756964.72,-1078688.22 756875.71,-1078742.71 756795.80,-1078641.38 756741.34,-1078505.43 756732.74,-1078478.30 756731.12,-1078449.19 756733.24,-1078406.93 756723.74,-1078333.16 756783.30,-1078319.53"/>
    <poly id="211479769" type="unknown" color="51,128,255" fill="0" layer="-1.00" shape="758828.81,-1079690.56 758858.92,-1079688.28 758891.30,-1079680.32"/>
    <poly id="211479770" type="unknown" color="51,128,255" fill="0" layer="-1.00" shape="757191.73,-1079063.53 757130.74,-1078957.89 757128.61,-1078954.55 757086.71,-1078896.98 757064.35,-1078867.49 757062.28,-1078864.05 757030.83,-1078815.26 757009.25,-1078767.74 756977.96,-1078698.61 756974.10,-1078691.62 756970.79,-1078690.43"/>
    <poly id="211479771" type="unknown" color="51,128,255" fill="0" layer="-1.00" shape="756392.07,-1079285.02 756570.44,-1079367.07 756594.85,-1079378.30 756631.95,-1079357.11 756702.74,-1079318.76 756786.26,-1079275.83 756864.66,-1079235.52 756957.90,-1079187.59 757027.22,-1079147.59 757074.71,-1079126.74 757108.61,-1079109.75"/>
    <poly id="211479773" type="unknown" color="51,128,255" fill="1" layer="-1.00" shape="756967.21,-1078697.26 756884.53,-1078752.56 757010.61,-1078914.31 757058.14,-1078872.59 757039.88,-1078846.46 757019.17,-1078810.63 757001.75,-1078770.97 756994.03,-1078755.36 756979.04,-1078725.05 756967.21,-1078697.26"/>
    <poly id="211479774" type="unknown" color="51,128,255" fill="0" layer="-1.00" shape="758918.35,-1079781.97 758917.28,-1079762.99 758910.37,-1079740.71 758904.58,-1079727.21 758897.34,-1079713.93"/>
    <poly id="211479776" type="unknown" color="51,128,255" fill="0" layer="-1.00" shape="758940.97,-1079704.07 758934.64,-1079682.98 758922.20,-1079673.40 758902.64,-1079672.57 758891.30,-1079680.32 758887.02,-1079696.08 758891.37,-1079709.51 758897.34,-1079713.93 758903.28,-1079718.32 758917.01,-1079717.95 758929.39,-1079714.86"/>
    <poly id="211479778" type="unknown" color="51,128,255" fill="0" layer="-1.00" shape="757430.32,-1078773.17 757404.28,-1078730.47 757379.43,-1078689.71 757322.37,-1078596.14 757316.96,-1078585.59 757283.97,-1078521.44"/>
    <poly id="211479781" type="unknown" color="51,128,255" fill="0" layer="-1.00" shape="758902.64,-1079672.57 758916.33,-1079659.94 758928.69,-1079646.07 758946.15,-1079613.02"/>
    <poly id="211479782" type="unknown" color="51,128,255" fill="0" layer="-1.00" shape="758828.81,-1079690.56 758848.88,-1079692.31 758867.10,-1079697.12 758891.37,-1079709.51"/>
    <poly id="211486084" type="unknown" color="51,128,255" fill="0" layer="-1.00" shape="756355.27,-1078897.64 756235.53,-1079106.79"/>
    <poly id="211486087" type="unknown" color="51,128,255" fill="0" layer="-1.00" shape="756099.68,-1077807.88 756008.33,-1077812.80 755960.42,-1077754.67 755943.15,-1077733.70 755871.59,-1077646.87"/>
    <poly id="211486089" type="unknown" color="51,128,255" fill="0" layer="-1.00" shape="756474.42,-1077834.33 756409.20,-1077887.15 756317.97,-1077961.05"/>
    <poly id="211486091" type="unknown" color="51,128,255" fill="0" layer="-1.00" shape="755954.97,-1077949.92 755810.06,-1077774.89"/>
    <poly id="211486094" type="unknown" color="51,128,255" fill="0" layer="-1.00" shape="756094.01,-1077871.61 755981.19,-1077878.36 755911.49,-1077794.42 755895.56,-1077775.23 755841.30,-1077709.88"/>
    <poly id="211486098" type="unknown" color="51,128,255" fill="0" layer="-1.00" shape="756757.27,-1078202.96 756853.05,-1078200.22 756914.06,-1078198.47 757103.35,-1078193.03"/>
    <poly id="211486100" type="unknown" color="51,128,255" fill="0" layer="-1.00" shape="755971.33,-1078297.92 756042.89,-1078190.77"/>
    <poly id="211486102" type="unknown" color="51,128,255" fill="0" layer="-1.00" shape="756750.76,-1078669.15 756792.25,-1078644.28"/>
    <poly id="211486107" type="unknown" color="51,128,255" fill="0" layer="-1.00" shape="755671.41,-1079363.71 755621.75,-1079307.79 755567.29,-1079263.54"/>
    <poly id="211486108" type="unknown" color="51,128,255" fill="0" layer="-1.00" shape="756661.00,-1078030.41 756635.18,-1078025.99 756623.41,-1078024.15 756590.09,-1078033.28 756533.40,-1078048.81 756442.22,-1078073.79 756369.30,-1078093.75 756296.79,-1078113.62 756218.28,-1078134.94 756130.50,-1078157.66 756086.82,-1078168.96 756067.08,-1078174.07 756035.95,-1078182.13"/>
    <poly id="211486109" type="unknown" color="51,128,255" fill="0" layer="-1.00" shape="756106.23,-1077740.88 756032.35,-1077746.28"/>
    <poly id="211486110" type="unknown" color="51,128,255" fill="0" layer="-1.00" shape="755358.96,-1079587.95 755372.64,-1079560.12 755399.33,-1079541.43 755441.92,-1079511.90 755456.90,-1079501.10 755603.48,-1079395.42 755610.06,-1079391.18 755619.40,-1079383.97 755687.28,-1079367.34 755748.14,-1079329.29 755767.08,-1079315.75 755782.53,-1079304.22 755833.88,-1079277.81 755852.26,-1079267.84 755871.11,-1079267.98 755881.33,-1079271.02 755900.48,-1079276.95 755916.32,-1079285.25 755929.31,-1079280.08 755942.29,-1079277.24 756019.92,-1079291.82 756033.46,-1079291.33 756044.63,-1079285.70 756061.07,-1079300.88"/>
    <poly id="211486111" type="unknown" color="51,128,255" fill="0" layer="-1.00" shape="755346.27,-1078692.95 755430.60,-1078674.81 755525.41,-1078653.11 755734.09,-1078604.85 755737.89,-1078604.24 755764.16,-1078599.42 755829.21,-1078587.46 755849.24,-1078586.43 755898.72,-1078587.29"/>
    <poly id="211486112" type="unknown" color="51,128,255" fill="0" layer="-1.00" shape="755734.09,-1078604.85 755752.28,-1078550.28 755786.82,-1078448.00 755787.93,-1078444.72 755849.74,-1078261.64"/>
    <poly id="211486113" type="unknown" color="51,128,255" fill="0" layer="-1.00" shape="756034.24,-1078502.61 755786.82,-1078448.00 755582.98,-1078401.08 755430.13,-1078365.91 755366.89,-1078350.12 755341.95,-1078349.50"/>
    <poly id="211486114" type="unknown" color="51,128,255" fill="0" layer="-1.00" shape="756321.23,-1077441.13 756325.54,-1077456.25 756342.83,-1077516.96 756358.87,-1077573.26 756390.01,-1077682.62"/>
    <poly id="211486115" type="unknown" color="51,128,255" fill="0" layer="-1.00" shape="756402.87,-1077727.76 756365.53,-1077738.98 756332.58,-1077748.87 756264.17,-1077769.41"/>
    <poly id="211486116" type="unknown" color="51,128,255" fill="0" layer="-1.00" shape="755676.64,-1079374.28 755671.41,-1079363.71"/>
    <poly id="211486117" type="unknown" color="51,128,255" fill="0" layer="-1.00" shape="755892.04,-1079560.41 755884.62,-1079527.23 755834.62,-1079511.83 755780.44,-1079520.07 755742.81,-1079398.78 755726.14,-1079359.56 755722.83,-1079355.73"/>
    <poly id="211486118" type="unknown" color="51,128,255" fill="1" layer="-1.00" shape="755284.51,-1079710.88 755274.93,-1079734.21 755263.65,-1079748.17 755245.90,-1079759.17 755230.50,-1079773.68 755215.11,-1079784.70 755198.53,-1079798.04 755186.74,-1079799.71 755171.45,-1079797.27 755156.68,-1079795.55 755144.94,-1079798.83 755130.21,-1079800.49 755111.31,-1079809.14 755104.75,-1079819.62 755092.97,-1079822.46 755081.09,-1079826.62 755069.27,-1079842.77 755059.14,-1079860.25 755051.37,-1079875.41 755047.71,-1079895.27 755044.05,-1079913.97 754699.69,-1079898.73 754690.36,-1079885.80 754689.83,-1079868.98 754681.71,-1079851.37 754668.89,-1079830.23 754649.65,-1079811.23 754630.23,-1079801.29 754597.31,-1079793.46 754558.49,-1079795.97 754505.94,-1079816.09 754488.16,-1079834.10 754475.64,-1079855.08 754491.08,-1079923.04 754486.20,-1079948.17 754467.33,-1079951.54 754453.93,-1079930.40 754407.04,-1079889.85 754351.29,-1079863.14 754330.77,-1079850.13 754306.80,-1079834.02 754268.60,-1079822.65 754240.95,-1079818.94 754213.84,-1079822.86 754173.14,-1079833.11 754135.34,-1079850.40 754116.94,-1079871.33 754093.28,-1079886.38 754062.56,-1079901.96 754040.07,-1079917.02 754016.96,-1079930.46 754005.81,-1079925.70 754004.20,-1079911.51 754032.12,-1079866.81 754042.42,-1079824.75 754056.42,-1079766.20 754075.50,-1079731.82 754074.63,-1079685.60 754077.71,-1079667.48 754060.20,-1079643.97 754054.32,-1079643.34 754051.48,-1079629.28 754055.60,-1079620.68 754036.47,-1079585.30 754011.28,-1079565.82 753977.19,-1079556.81 753942.98,-1079565.94 753920.47,-1079575.88 753906.99,-1079575.05 753884.58,-1079580.17 753871.05,-1079578.32 753873.41,-1079568.54 753881.74,-1079556.30 753893.03,-1079540.59 753904.33,-1079533.50 753912.54,-1079531.36 753914.85,-1079546.45 753924.77,-1079550.17 753934.93,-1079528.60 753950.06,-1079477.65 753959.45,-1079473.77 753970.16,-1079465.51 753980.80,-1079451.68 754008.52,-1079444.86 754019.16,-1079447.12 754046.95,-1079429.18 754065.77,-1079425.94 754089.50,-1079407.83 754097.63,-1079414.47 754124.72,-1079415.24 754139.44,-1079415.34 754151.27,-1079415.26 754178.41,-1079407.85 754190.78,-1079398.72 754187.30,-1079391.09 754194.43,-1079381.19 754202.68,-1079380.67 754211.74,-1079347.97 754204.21,-1079329.78 754185.01,-1079303.77 754169.70,-1079295.62 754111.10,-1079262.31 754082.89,-1079254.51 754062.45,-1079231.56 754047.87,-1079210.39 754025.05,-1079188.59 753998.12,-1079166.76 753973.64,-1079129.16 753970.82,-1079111.58 753963.29,-1079092.23 753953.38,-1079070.08 753947.01,-1079062.28 753957.72,-1079047.15 753951.92,-1079032.48 753942.00,-1079019.54 753926.22,-1079003.64 753898.65,-1078987.65 753878.07,-1078983.42 753850.37,-1078986.74 753832.79,-1078975.51 753813.85,-1078981.37 753796.24,-1078981.68 753749.23,-1078966.16 753728.09,-1078958.40 753698.13,-1078948.26 753677.55,-1078942.85 753664.68,-1078929.90 753635.82,-1078932.03 753592.08,-1078955.72 753574.92,-1078968.47 753554.90,-1078968.34 753544.85,-1078974.71 753527.14,-1078981.02 753489.40,-1078988.95 753455.11,-1079000.56 753434.43,-1079018.99 753409.53,-1079043.98 753376.88,-1079083.54 753374.94,-1079108.68 753349.95,-1079145.95 753331.55,-1079158.84 753298.04,-1079159.05 753261.55,-1079157.04 753240.48,-1079142.27 753221.17,-1079124.59 753205.30,-1079120.97 753198.69,-1079140.82 753188.01,-1079151.86 753174.98,-1079162.31 753157.84,-1079171.55 753137.79,-1079176.09 753125.40,-1079180.10 753118.81,-1079197.02 753120.46,-1079214.58 753120.97,-1079225.12 753128.00,-1079231.01 753135.58,-1079241.59 753143.14,-1079256.27 753158.21,-1079278.75 753149.42,-1079283.80 753142.96,-1079282.01 753138.76,-1079292.52 753129.89,-1079298.89 753118.67,-1079302.32 753115.72,-1079290.74 753099.95,-1079286.40 753089.37,-1079282.82 753083.59,-1079266.98 753073.06,-1079256.38 753066.77,-1079229.43 753070.83,-1079152.23 753085.06,-1079137.12 753151.69,-1079025.40 753165.92,-1079011.46 753166.69,-1078997.28 753154.36,-1078991.93 753143.86,-1078978.99 753131.00,-1078963.68 753119.91,-1078948.99 753116.44,-1078927.47 753110.15,-1078912.07 753097.87,-1078901.45 753116.81,-1078873.06 753131.43,-1078899.93 753152.53,-1078916.45 753155.98,-1078927.01 753166.52,-1078936.43 753173.51,-1078947.01 753186.99,-1078957.64 753203.36,-1078961.99 753262.83,-1078961.81 753288.78,-1078962.43 753310.52,-1078962.13 753341.85,-1078951.67 753377.23,-1078938.02 753391.42,-1078936.80 753404.36,-1078929.43 753415.58,-1078924.24 753448.21,-1078897.41 753475.93,-1078892.92 753490.65,-1078883.22 753500.81,-1078870.86 753513.69,-1078871.68 753527.27,-1078876.88 753533.09,-1078886.28 753538.28,-1078892.32 753559.03,-1078880.62 753584.97,-1078868.07 753604.50,-1078853.58 753615.19,-1078850.00 753635.30,-1078834.92 753652.91,-1078835.19 753660.60,-1078839.19 753683.53,-1078843.44 753692.95,-1078844.09 753711.78,-1078845.98 753723.54,-1078848.98 753731.72,-1078849.18 753745.33,-1078847.37 753757.07,-1078844.67 753766.51,-1078850.45 753779.45,-1078852.87 753789.99,-1078861.13 753804.66,-1078861.39 753815.25,-1078861.46 753835.33,-1078852.23 753850.14,-1078839.47 753851.99,-1078827.77 753852.64,-1078819.59 753859.17,-1078811.44 753853.98,-1078795.02 753861.81,-1078778.55 753868.88,-1078768.21 753873.68,-1078754.79 753870.92,-1078736.49 753870.43,-1078723.03 753879.43,-1078690.49 753890.10,-1078679.44 753893.24,-1078658.84 753895.61,-1078649.06 753907.52,-1078638.46 753924.02,-1078627.61 753930.20,-1078592.98 753933.48,-1078631.04 753944.64,-1078634.03 753942.16,-1078652.74 753940.85,-1078672.63 753944.23,-1078694.29 753948.83,-1078711.29 753957.56,-1078724.80 753959.16,-1078750.55 753950.90,-1078752.84 753951.43,-1078761.62 753956.04,-1078776.28 753957.12,-1078790.32 753976.49,-1078790.02 754003.02,-1078785.52 754024.82,-1078791.37 754037.76,-1078793.80 754060.63,-1078808.58 754072.37,-1078805.29 754111.37,-1078786.26 754104.21,-1078807.71 754105.87,-1078823.51 754118.62,-1078844.23 754133.34,-1078844.91 754140.96,-1078858.85 754145.36,-1078903.34 754156.35,-1078932.09 754171.47,-1078960.86 754185.88,-1078996.79 754188.67,-1079027.08 754205.52,-1079053.08 754211.32,-1079072.87 754211.85,-1079082.23 754226.94,-1079104.72 754239.92,-1079110.50 754252.83,-1079108.99 754277.56,-1079109.74 754311.28,-1079094.62 754328.41,-1079087.71 754339.60,-1079077.99 754348.49,-1079069.28 754359.75,-1079068.62 754373.06,-1079092.26 754384.10,-1079113.98 754388.19,-1079126.73 754379.38,-1079124.92 754384.01,-1079137.23 754391.60,-1079144.89 754409.76,-1079159.64 754450.22,-1079175.27 754479.68,-1079181.76 754493.09,-1079192.53 754510.17,-1079192.06 754513.68,-1079203.06 754535.31,-1079219.14 754555.88,-1079233.77 754570.49,-1079248.50 754582.14,-1079267.88 754595.01,-1079279.67 754610.19,-1079297.91 754611.85,-1079313.13 754620.61,-1079324.89 754621.71,-1079334.84 754638.65,-1079356.02 754647.93,-1079375.39 754667.27,-1079380.34 754686.70,-1079379.89 754690.95,-1079369.84 754698.71,-1079355.85 754716.03,-1079311.07 754726.28,-1079276.62 754738.83,-1079250.97 754739.55,-1079231.08 754748.61,-1079205.26 754751.62,-1079188.46 754764.16,-1079172.02 754771.84,-1079167.39 754780.66,-1079169.80 754790.71,-1079163.43 754792.40,-1079175.72 754810.16,-1079160.64 754817.80,-1079153.82 754816.00,-1079168.87 754815.94,-1079177.05 754822.93,-1079179.01 754825.92,-1079182.39 754819.39,-1079188.20 754819.32,-1079197.55 754824.58,-1079204.61 754840.40,-1079216.42 754834.43,-1079228.08 754833.67,-1079253.23 754845.88,-1079275.54 754853.32,-1079298.55 754867.45,-1079307.28 754888.05,-1079307.42 754900.82,-1079325.79 754917.24,-1079345.06 754920.65,-1079364.39 754921.72,-1079378.44 754946.76,-1079420.15 754968.38,-1079435.65 754974.79,-1079452.51 754991.74,-1079463.31 755002.89,-1079477.28 755017.51,-1079492.59 755024.49,-1079503.75 755043.83,-1079517.34 755059.65,-1079529.15 755076.01,-1079539.94 755095.41,-1079552.21 755114.80,-1079557.61 755138.92,-1079552.65 755158.37,-1079550.45 755198.01,-1079523.23 755224.22,-1079572.99 755244.22,-1079576.05 755279.59,-1079561.24 755297.90,-1079562.97 755307.88,-1079567.13 755273.07,-1079577.42 755268.31,-1079584.99 755268.85,-1079590.26 755280.03,-1079583.47 755290.01,-1079595.68 755312.98,-1079596.41 755321.17,-1079604.67 755326.32,-1079624.59 755316.15,-1079647.92 755305.45,-1079663.64 755298.29,-1079675.87 755298.17,-1079694.59 755284.51,-1079710.88"/>
    <poly id="211486119" type="unknown" color="51,128,255" fill="0" layer="-1.00" shape="757515.05,-1079499.12 757595.51,-1079534.17 757663.09,-1079559.81 757735.05,-1079587.11 757772.18,-1079599.49 757824.78,-1079613.95 757876.46,-1079625.72 757953.76,-1079630.98 758001.56,-1079634.24 758066.69,-1079638.67 758102.31,-1079640.45 758232.55,-1079649.97 758263.48,-1079652.07 758299.61,-1079654.53 758308.51,-1079655.14 758340.56,-1079657.32 758360.07,-1079658.64 758377.36,-1079659.83 758385.09,-1079660.36 758422.83,-1079662.92 758433.96,-1079663.67 758502.95,-1079668.37 758681.99,-1079680.57 758828.81,-1079690.56"/>
    <poly id="211556638" type="unknown" color="51,128,255" fill="0" layer="-1.00" shape="758868.53,-1082019.56 758903.47,-1081882.69"/>
    <poly id="211556639" type="unknown" color="51,128,255" fill="0" layer="-1.00" shape="759557.29,-1081957.11 759543.50,-1082024.86 759530.03,-1082091.04 759514.79,-1082158.94 759512.92,-1082167.27"/>
    <poly id="211556640" type="unknown" color="51,128,255" fill="0" layer="-1.00" shape="759891.64,-1081655.71 759884.36,-1081598.80"/>
    <poly id="211556641" type="unknown" color="51,128,255" fill="0" layer="-1.00" shape="759778.78,-1081523.44 759524.24,-1081549.14"/>
    <poly id="211556642" type="unknown" color="51,128,255" fill="0" layer="-1.00" shape="759568.51,-1081701.55 759891.64,-1081655.71 760707.83,-1081539.92"/>
    <poly id="211556643" type="unknown" color="51,128,255" fill="0" layer="-1.00" shape="759385.89,-1081401.42 759472.86,-1081418.07 759510.39,-1081424.44 759680.07,-1081426.54 759701.24,-1081430.20 759743.46,-1081438.95 759764.07,-1081438.51 759796.47,-1081436.40"/>
    <poly id="211556644" type="unknown" color="51,128,255" fill="0" layer="-1.00" shape="759209.86,-1081980.70 759225.25,-1081950.10 759231.88,-1081927.93 759268.82,-1081733.65"/>
    <poly id="211556645" type="unknown" color="51,128,255" fill="0" layer="-1.00" shape="759274.30,-1082002.58 759286.92,-1081933.45 759300.21,-1081860.66 759312.03,-1081795.95 759323.00,-1081735.87 759327.79,-1081709.67"/>
    <poly id="211556646" type="unknown" color="51,128,255" fill="0" layer="-1.00" shape="759300.21,-1081860.66 759494.18,-1081937.03 759557.29,-1081957.11"/>
    <poly id="211556647" type="unknown" color="51,128,255" fill="0" layer="-1.00" shape="759473.13,-1081634.43 759460.56,-1081632.30 759448.84,-1081631.89 759438.36,-1081636.02 759434.06,-1081640.07"/>
    <poly id="211556648" type="unknown" color="51,128,255" fill="0" layer="-1.00" shape="759796.47,-1081436.40 759793.08,-1081459.13 759778.78,-1081523.44"/>
    <poly id="211556649" type="unknown" color="51,128,255" fill="0" layer="-1.00" shape="759502.00,-1081780.06 759416.83,-1081755.95 759323.00,-1081735.87"/>
    <poly id="211556650" type="unknown" color="51,128,255" fill="0" layer="-1.00" shape="759396.69,-1081681.64 759416.27,-1081664.22 759426.68,-1081652.71 759431.81,-1081646.16 759434.06,-1081640.07 759438.31,-1081628.10 759445.55,-1081602.41 759449.75,-1081571.99"/>
    <poly id="211556651" type="unknown" color="51,128,255" fill="0" layer="-1.00" shape="759459.44,-1081687.83 759468.67,-1081684.30 759477.90,-1081678.63 759482.10,-1081658.45"/>
    <poly id="211556652" type="unknown" color="51,128,255" fill="0" layer="-1.00" shape="759327.79,-1081709.67 759346.64,-1081600.55 759364.33,-1081512.93 759388.22,-1081407.64"/>
    <poly id="211556653" type="unknown" color="51,128,255" fill="0" layer="-1.00" shape="759528.26,-1081579.33 759524.24,-1081549.14 759517.22,-1081488.78 759510.39,-1081424.44"/>
    <poly id="211556654" type="unknown" color="51,128,255" fill="0" layer="-1.00" shape="759512.34,-1081739.75 759500.76,-1081723.05 759483.68,-1081706.22 759459.44,-1081687.83 759447.77,-1081684.15 759433.81,-1081681.31 759417.93,-1081678.27 759396.69,-1081681.64"/>
    <poly id="211556655" type="unknown" color="51,128,255" fill="0" layer="-1.00" shape="759543.50,-1082024.86 759479.54,-1082001.26 759286.92,-1081933.45"/>
    <poly id="211556656" type="unknown" color="51,128,255" fill="0" layer="-1.00" shape="759431.81,-1081646.16 759433.37,-1081658.49 759439.18,-1081670.81 759447.77,-1081684.15"/>
    <poly id="211556657" type="unknown" color="51,128,255" fill="0" layer="-1.00" shape="759416.83,-1081755.95 759433.81,-1081681.31"/>
    <poly id="211556658" type="unknown" color="51,128,255" fill="0" layer="-1.00" shape="759464.26,-1082068.29 759479.54,-1082001.26 759494.18,-1081937.03 759510.99,-1081863.31"/>
    <poly id="211556659" type="unknown" color="51,128,255" fill="1" layer="-1.00" shape="759869.33,-1081556.32 759955.32,-1081543.37 759962.23,-1081588.62 759876.23,-1081601.57 759869.33,-1081556.32"/>
    <poly id="211556660" type="unknown" color="51,128,255" fill="0" layer="-1.00" shape="759558.32,-1081863.39 759510.99,-1081863.31 759312.03,-1081795.95"/>
    <poly id="211556661" type="unknown" color="51,128,255" fill="0" layer="-1.00" shape="759268.82,-1081733.65 759282.14,-1081646.90"/>
    <poly id="211556662" type="unknown" color="51,128,255" fill="0" layer="-1.00" shape="759422.42,-1081498.96 759517.22,-1081488.78 759793.08,-1081459.13"/>
    <poly id="211557239" type="unknown" color="51,128,255" fill="0" layer="-1.00" shape="758154.97,-1081766.28 758212.46,-1081694.01 758320.32,-1081557.21"/>
    <poly id="211557240" type="unknown" color="51,128,255" fill="0" layer="-1.00" shape="758903.20,-1081794.32 758906.79,-1081769.46 758958.08,-1081495.16 758996.96,-1081287.26"/>