[General]
cmdenv-express-mode = true
cmdenv-autoflush = true
cmdenv-status-frequency = 10000000s

#tkenv-default-config = debug
#tkenv-default-run = 1
tkenv-image-path = bitmaps
ned-path = .

network = PedestrianScenario

##########################################################
#            Simulation parameters                       #
##########################################################
debug-on-errors = true
print-undisposed = false

sim-time-limit = 6000s

**.scalar-recording = true
**.vector-recording = true

**.debug = true
**.coreDebug = true

*.playgroundSizeX = 50000m
*.playgroundSizeY = 50000m
*.playgroundSizeZ = 50m


##########################################################
# Annotation parameters                                  #
##########################################################
*.annotations.draw = false

##########################################################
# Obstacle parameters                                    #
##########################################################
*.obstacles.debug = false

##########################################################
#            WorldUtility parameters                     #
##########################################################
*.world.useTorus = false
*.world.use2D = false

##########################################################
#            TraCIScenarioManager parameters             #
##########################################################
*.manager.updateInterval = 0.5s
*.manager.host = "localhost"
*.manager.port = 9999
*.manager.moduleType = "org.car2x.veins.nodes.Car"
*.manager.moduleName = "node"
*.manager.moduleDisplayString = ""
*.manager.autoShutdown = true
*.manager.margin = 25
*.manager.launchConfig = xmldoc("arapiraca.launchd.xml")

*.manager.useBluetooth = false
*.manager.bluetoothAddress = "14:2D:27:CD:A5:68"
*.manager.IPAddress = "192.168.0.103"
*.manager.socketPort = 3736


##########################################################
#            11p specific parameters                     #
#                                                        #
#                    NIC-Settings                        #
##########################################################
*.connectionManager.pMax = 20mW
*.connectionManager.sat = -89dBm
*.connectionManager.alpha = 2.0
*.connectionManager.carrierFrequency = 5.890e9 Hz
*.connectionManager.sendDirect = true

*.**.nic.mac1609_4.useServiceChannel = false

*.**.nic.mac1609_4.txPower = 20mW
*.**.nic.mac1609_4.bitrate = 18Mbps

*.**.nic.phy80211p.sensitivity = -89dBm
*.**.nic.phy80211p.maxTXPower = 10mW
*.**.nic.phy80211p.useThermalNoise = true
*.**.nic.phy80211p.thermalNoise = -110dBm
*.**.nic.phy80211p.decider = xmldoc("config.xml")
*.**.nic.phy80211p.analogueModels = xmldoc("config.xml")
*.**.nic.phy80211p.usePropagationDelay = true


##########################################################
#                       RSU SETTINGS                     #
#                                                        #
#                                                        #
##########################################################
*.rsu[0].mobility.x = 37000
*.rsu[0].mobility.y = 11000
*.rsu[0].mobility.z = 3
*.rsu[*].applType = "TraCIDemoRSU11p"
*.rsu[*].appl.debug = false
*.rsu[*].appl.headerLength = 256 bit
*.rsu[*].appl.sendBeacons = false
*.rsu[*].appl.dataOnSch = false
*.rsu[*].appl.sendData = true
*.rsu[*].appl.beaconInterval = 1s
*.rsu[*].appl.beaconPriority = 3
*.rsu[*].appl.dataPriority = 2
*.rsu[*].appl.maxOffset = 0.005s


##########################################################
#                Pedestrian SETTINGS                     #
#                                                        #
##########################################################

*.pedestrian[*].applType = "PedestrianTLApp"
*.pedestrian[*].appl.debug = false
*.pedestrian[*].appl.headerLength = 256 bit
*.pedestrian[*].appl.sendBeacons = false
*.pedestrian[*].appl.dataOnSch = false
*.pedestrian[*].appl.sendData = true
*.pedestrian[*].appl.beaconInterval = 30s
*.pedestrian[*].appl.beaconPriority = 3
*.pedestrian[*].appl.dataPriority = 2
*.pedestrian[*].appl.maxOffset = 0.005s

*.pedestrian[*].veinsmobilityType = "org.car2x.veins.pedestrian.modules.mobility.PedestrianMobility"
*.pedestrian[*].veinsmobilityType.debug = true
*.pedestrian[*].veinsmobility.x = 0
*.pedestrian[*].veinsmobility.y = 0
*.pedestrian[*].veinsmobility.z = 1.895

##########################################################
#                Traffic Lights SETTINGS                 #
#                                                        #
##########################################################

*.tl[*].applType = "TLScenarioApp"
*.tl[*].appl.debug = false
*.tl[*].appl.headerLength = 256 bit
*.tl[*].appl.sendBeacons = false
*.tl[*].appl.dataOnSch = false
*.tl[*].appl.sendData = true
*.tl[*].appl.beaconInterval = 30s
*.tl[*].appl.beaconPriority = 3
*.tl[*].appl.dataPriority = 2
*.tl[*].appl.maxOffset = 0.005s

*.tl[*].mobility.x = 37000
*.tl[*].mobility.y = 11500
*.tl[*].mobility.z = 1.895

##########################################################
#                    WaveAppLayer                        #
##########################################################
*.node[*].applType = "BusScenarioApp"
*.node[*].appl.debug = false
*.node[*].appl.headerLength = 256 bit
*.node[*].appl.sendBeacons = false
*.node[*].appl.dataOnSch = false
*.node[*].appl.sendData = true
*.node[*].appl.beaconInterval = 5s
*.node[*].appl.beaconPriority = 3
*.node[*].appl.dataPriority = 2
*.node[*].appl.maxOffset = 0.005s

##########################################################
#                      Mobility                          #
##########################################################
*.node[*].veinsmobilityType = "org.car2x.veins.modules.mobility.traci.TraCIMobility"
*.node[*].mobilityType = "TraCIMobility"
*.node[*].mobilityType.debug = true
*.node[*].veinsmobilityType.debug = true
*.node[*].veinsmobility.x = 0
*.node[*].veinsmobility.y = 0
*.node[*].veinsmobility.z = 1.895
*.node[*0].veinsmobility.accidentCount = 1
*.node[*0].veinsmobility.accidentStart = 95s
*.node[*0].veinsmobility.accidentDuration = 30s


[Config nodebug]
description = "default settings"
**.debug = false
**.coreDebug = false
*.annotations.draw = false

[Config debug]
description = "(very slow!) draw and print additional debug information"
**.debug = true
**.coreDebug = true
*.annotations.draw = true

